24639
 PCMODEL  v9.1   1.00000     0.00000

 10  8  0  0  0  0              1 V2000
  104.4572    2.1846    2.4780 N   0  3  0  0  0  0 
  108.7422    1.7736    2.2990 O   0  5  0  0  0  0 
  107.3103    1.9085    2.3605 Cl  0  0  0  0  0  0 
  106.7583    1.3629    3.5870 O   0  0  0  0  0  0 
  106.6459    1.2229    1.2671 O   0  0  0  0  0  0 
  106.8858    3.2953    2.2972 O   0  0  0  0  0  0 
  104.9664    3.0815    2.3918 H   0  0  0  0  0  0 
  104.8718    1.7311    3.3105 H   0  0  0  0  0  0 
  104.7947    1.6185    1.6801 H   0  0  0  0  0  0 
  103.4484    2.2833    2.5190 H   0  0  0  0  0  0 
  1  7  1  0
  1  8  1  0
  1  9  1  0
  1 10  1  0
  2  3  1  0
  3  4  2  0
  3  5  2  0
  3  6  2  0
M  END
> <title>
24639
> <MMFF94 energy>
-99.783999
> <dipole moment>
12.650767
> <xLogP>
1.194000
> <Point Group>
C3
> <Moments of Inertia>
14.8257838.3  35.7193458.3  35.7207768.3 
> <thermodynamics dE, dH, S, dG, CP>
-52.5113268.3  -51.9189008.3  83.4766168.3  -76.8074498.3  25.9094568.3  

$$$$
